REMARK SMILES [H]/N=C(/N)N/C(=N/[H])N(C)C
REMARK SMILES IDX 10 1 9 2 11 3 6 4 7 5 5 6 3 7 4 8 2 9 8 10 1 14
REMARK H PARENT 5 11 4 12 4 13
REMARK Flexibility Score: inf
ROOT
ATOM      1  C   UNL A   1       1.096  -0.076  -0.028  1.00  0.00     0.146 C 
ATOM      2  N   UNL A   1       2.550   0.021  -0.039  1.00  0.00    -0.349 N 
ATOM      3  C   UNL A   1       3.333  -1.199   0.103  1.00  0.00     0.146 C 
ATOM      4  C   UNL A   1       3.207   1.304  -0.189  1.00  0.00     0.197 C 
ATOM      5  N   UNL A   1       2.507   2.377  -0.316  1.00  0.00    -0.269 NA
ATOM      6  N   UNL A   1       4.646   1.385  -0.197  1.00  0.00    -0.297 N 
ATOM      7  C   UNL A   1       5.474   2.558  -0.332  1.00  0.00     0.192 C 
ATOM      8  N   UNL A   1       4.960   3.879  -0.478  1.00  0.00    -0.370 N 
ATOM      9  N   UNL A   1       6.753   2.418  -0.322  1.00  0.00    -0.269 NA
ATOM     10  H   UNL A   1       1.479   2.404  -0.320  1.00  0.00     0.191 HD
ATOM     11  H   UNL A   1       5.165   0.503  -0.096  1.00  0.00     0.173 HD
ATOM     12  H   UNL A   1       3.966   4.120  -0.498  1.00  0.00     0.159 HD
ATOM     13  H   UNL A   1       5.620   4.666  -0.570  1.00  0.00     0.159 HD
ATOM     14  H   UNL A   1       7.204   1.497  -0.220  1.00  0.00     0.191 HD
ENDROOT
TORSDOF 0
