SIM
 OpenBabel12262516113D

 20 19  0  0  0  0  0  0  0  0999 V2000
    1.0963   -0.0762   -0.0276 C   0  0  0  0  0  0  0  0  0  0  0  0
    2.5505    0.0206   -0.0390 N   0  0  0  0  0  0  0  0  0  0  0  0
    3.3327   -1.1991    0.1033 C   0  0  0  0  0  0  0  0  0  0  0  0
    3.2070    1.3041   -0.1886 C   0  0  0  0  0  0  0  0  0  0  0  0
    2.5069    2.3767   -0.3155 N   0  0  0  0  0  0  0  0  0  0  0  0
    4.6459    1.3845   -0.1972 N   0  0  0  0  0  0  0  0  0  0  0  0
    5.4737    2.5581   -0.3324 C   0  0  0  0  0  0  0  0  0  0  0  0
    4.9599    3.8790   -0.4782 N   0  0  0  0  0  0  0  0  0  0  0  0
    6.7534    2.4181   -0.3215 N   0  0  0  0  0  0  0  0  0  0  0  0
    0.7436   -1.1218    0.0945 H   0  0  0  0  0  0  0  0  0  0  0  0
    0.6850    0.3032   -0.9870 H   0  0  0  0  0  0  0  0  0  0  0  0
    0.6851    0.5141    0.8185 H   0  0  0  0  0  0  0  0  0  0  0  0
    2.6935   -2.1006    0.2083 H   0  0  0  0  0  0  0  0  0  0  0  0
    3.9684   -1.1364    1.0118 H   0  0  0  0  0  0  0  0  0  0  0  0
    3.9683   -1.3471   -0.7954 H   0  0  0  0  0  0  0  0  0  0  0  0
    1.4789    2.4036   -0.3198 H   0  0  0  0  0  0  0  0  0  0  0  0
    5.1653    0.5031   -0.0964 H   0  0  0  0  0  0  0  0  0  0  0  0
    3.9662    4.1197   -0.4977 H   0  0  0  0  0  0  0  0  0  0  0  0
    5.6195    4.6658   -0.5699 H   0  0  0  0  0  0  0  0  0  0  0  0
    7.2037    1.4966   -0.2198 H   0  0  0  0  0  0  0  0  0  0  0  0
  1  2  1  0  0  0  0
  1 10  1  0  0  0  0
  1 11  1  0  0  0  0
  1 12  1  0  0  0  0
  2  3  1  0  0  0  0
  2  4  1  0  0  0  0
  3 13  1  0  0  0  0
  3 14  1  0  0  0  0
  3 15  1  0  0  0  0
  4  5  2  0  0  0  0
  4  6  1  0  0  0  0
  5 16  1  0  0  0  0
  6  7  1  0  0  0  0
  6 17  1  0  0  0  0
  7  8  1  0  0  0  0
  7  9  2  0  0  0  0
  8 18  1  0  0  0  0
  8 19  1  0  0  0  0
  9 20  1  0  0  0  0
M  END
>  <Energy>
98.3377

$$$$
